14
Nc1ccccc1
N 2.1707 -0.1317 -0.8399
C 0.8432 -0.0539 -0.3282
C 0.1648 -1.1619 0.1373
C -1.1214 -1.0882 0.6334
C -1.7989 0.1118 0.6882
C -1.1282 1.2254 0.2247
C 0.1591 1.1440 -0.2704
H 2.9866 -0.3851 -0.2094
H 2.4291 0.0459 -1.8261
H 0.7111 -2.1055 0.0888
H -1.6216 -1.9849 0.9908
H -2.8077 0.1756 1.0763
H -1.6668 2.1776 0.2687
H 0.6801 2.0310 -0.6343